examples/feeders/123Bus/ieee123_Curr_Elem.Txt

CIRCUIT ELEMENT CURRENTS

(Currents into element from indicated bus)

Power Delivery Elements

  Bus    Phase    Magnitude, A     Angle      (Real)   +j  (Imag)

ELEMENT = "Vsource.SOURCE"
150          1           730.92 /_  157.1 =    -673.55 +j    283.86
150          2           521.81 /_   38.2 =     409.91 +j    322.89
150          3           626.21 /_  -80.6 =     102.18 +j   -617.82
------------
150          0           730.92 /_  -22.9 =     673.55 +j   -283.86
150          0           521.81 /_ -141.8 =    -409.91 +j   -322.89
150          0           626.21 /_   99.4 =    -102.18 +j    617.82

ELEMENT = "Transformer.REG1A"
150          1           730.92 /_  -22.9 =     673.55 +j   -283.86
150          2           521.81 /_ -141.8 =    -409.91 +j   -322.89
150          3           626.21 /_   99.4 =    -102.18 +j    617.82
150          0           161.84 /_ -176.1 =    -161.46 +j   -11.069
------------
150R         1           700.28 /_  157.1 =    -645.32 +j    271.96
150R         2           499.94 /_   38.2 =     392.73 +j    309.36
150R         3           599.96 /_  -80.6 =     97.893 +j   -591.92
150R         0           155.06 /_    3.9 =     154.69 +j    10.605

ELEMENT = "Line.L115"
149          1           700.28 /_  -22.9 =     645.32 +j   -271.96
149          2           499.94 /_ -141.8 =    -392.73 +j   -309.36
149          3           599.96 /_   99.4 =    -97.893 +j    591.92
------------
1            1           700.28 /_  157.1 =    -645.32 +j    271.96
1            2           499.94 /_   38.2 =     392.73 +j    309.36
1            3           599.96 /_  -80.6 =     97.892 +j   -591.92

ELEMENT = "Line.L1"
1            2           11.873 /_ -146.9 =    -9.9503 +j   -6.4785
------------
2            2           11.874 /_   33.1 =     9.9507 +j    6.4783

ELEMENT = "Line.L2"
1            3           60.183 /_   92.9 =    -3.0378 +j    60.106
------------
3            3           60.183 /_  -87.1 =     3.0373 +j   -60.107

ELEMENT = "Line.L3"
1            1           683.22 /_  -22.7 =      630.1 +j   -264.13
1            2           488.11 /_ -141.6 =    -382.78 +j   -302.88
1            3           540.21 /_  100.1 =    -94.855 +j    531.82
------------
7            1           683.22 /_  157.3 =     -630.1 +j    264.13
7            2           488.11 /_   38.4 =     382.78 +j    302.88
7            3           540.21 /_  -79.9 =     94.854 +j   -531.82

ELEMENT = "Line.L4"
3            3           23.358 /_   92.9 =    -1.1863 +j    23.328
------------
4            3           23.359 /_  -87.1 =     1.1859 +j   -23.328

ELEMENT = "Line.L5"
3            3           36.825 /_   92.9 =     -1.851 +j    36.778
------------
5            3           36.825 /_  -87.1 =     1.8504 +j   -36.779

ELEMENT = "Line.L6"
5            3           24.784 /_   92.9 =    -1.2432 +j    24.753
------------
6            3           24.784 /_  -87.1 =     1.2427 +j   -24.753

ELEMENT = "Line.L7"
7            1           674.61 /_  -22.7 =     622.45 +j   -260.11
7            2           488.11 /_ -141.6 =    -382.78 +j   -302.88
7            3           540.21 /_  100.1 =    -94.854 +j    531.82
------------
8            1           674.61 /_  157.3 =    -622.45 +j    260.11
8            2           488.11 /_   38.4 =     382.78 +j    302.88
8            3           540.21 /_  -79.9 =     94.853 +j   -531.82

ELEMENT = "Line.L8"
8            2           11.933 /_ -147.4 =    -10.055 +j   -6.4248
------------
12           2           11.933 /_   32.6 =     10.056 +j    6.4245

ELEMENT = "Line.L9"
8            1           43.786 /_  -28.1 =     38.625 +j   -20.624
------------
9            1           43.787 /_  151.9 =    -38.625 +j    20.624

ELEMENT = "Line.L10"
8            1           631.03 /_  -22.3 =     583.82 +j   -239.49
8            2           476.24 /_ -141.5 =    -372.73 +j   -296.45
8            3           540.21 /_  100.1 =    -94.853 +j    531.82
------------
13           1           631.03 /_  157.7 =    -583.82 +j    239.49
13           2           476.24 /_   38.5 =     372.73 +j    296.45
13           3           540.21 /_  -79.9 =     94.852 +j   -531.82

ELEMENT = "Line.L11"
9R           1           26.523 /_  -28.1 =     23.393 +j   -12.499
------------
14           1           26.523 /_  151.9 =    -23.393 +j    12.499

ELEMENT = "Line.L12"
13           3           60.094 /_   92.1 =    -2.1668 +j    60.055
------------
34           3           60.095 /_  -87.9 =     2.1665 +j   -60.056

ELEMENT = "Line.L13"
13           1           222.03 /_  -30.6 =     191.09 +j   -113.06
13           2           184.34 /_ -154.6 =    -166.59 +j   -78.937
13           3           186.39 /_   88.6 =     4.6594 +j    186.34
------------
18           1           222.03 /_  149.4 =    -191.09 +j    113.06
18           2           184.34 /_   25.4 =     166.59 +j    78.935
18           3            186.4 /_  -91.4 =    -4.6615 +j   -186.34

ELEMENT = "Line.L14"
14           1           17.703 /_  -28.1 =     15.614 +j   -8.3436
------------
11           1           17.703 /_  151.9 =    -15.613 +j    8.3441

ELEMENT = "Line.L15"
14           1             8.82 /_  -28.1 =     7.7795 +j   -4.1559
------------
10           1           8.8203 /_  151.9 =    -7.7795 +j    4.1564

ELEMENT = "Line.L16"
15           3           23.781 /_   92.0 =   -0.85067 +j    23.766
------------
16           3           23.782 /_  -88.0 =    0.84998 +j   -23.767

ELEMENT = "Line.L17"
15           3           11.883 /_   92.1 =   -0.42803 +j    11.875
------------
17           3           11.883 /_  -87.9 =    0.42739 +j   -11.875

ELEMENT = "Line.L18"
18           1           35.362 /_  -28.9 =     30.953 +j   -17.099
------------
19           1           35.363 /_  151.1 =    -30.953 +j      17.1

ELEMENT = "Line.L19"
18           1           52.945 /_  -29.1 =      46.27 +j   -25.734
18           2           25.275 /_ -148.0 =     -21.43 +j     -13.4
18           3           72.115 /_   91.8 =    -2.2761 +j    72.079
------------
21           1           52.945 /_  150.9 =     -46.27 +j    25.735
21           2           25.275 /_   32.0 =     21.431 +j    13.399
21           3           72.115 /_  -88.2 =     2.2753 +j   -72.079

ELEMENT = "Line.L20"
19           1            17.64 /_  -28.9 =      15.44 +j    -8.532
------------
20           1           17.641 /_  151.1 =     -15.44 +j    8.5326

ELEMENT = "Line.L21"
21           2           25.277 /_ -148.0 =    -21.435 +j   -13.396
------------
22           2           25.277 /_   32.0 =     21.436 +j    13.396

ELEMENT = "Line.L22"
21           1           52.945 /_  -29.1 =      46.27 +j   -25.735
21           2        0.0046277 /_  -35.0 =   0.003791 +j -0.002654
21           3           72.115 /_   91.8 =    -2.2753 +j    72.079
------------
23           1           52.946 /_  150.9 =     -46.27 +j    25.736
23           2        0.0038932 /_  145.0 =  -0.0031895 +j 0.0022326
23           3           72.116 /_  -88.2 =     2.2747 +j    -72.08

ELEMENT = "Line.L23"
23           3           24.026 /_   91.8 =   -0.76077 +j    24.014
------------
24           3           24.027 /_  -88.2 =    0.75978 +j   -24.015

ELEMENT = "Line.L24"
23           1           52.946 /_  -29.1 =      46.27 +j   -25.736
23           2        0.0038932 /_  -35.0 =  0.0031895 +j -0.0022326
23           3            48.09 /_   91.8 =    -1.5139 +j    48.066
------------
25           1           52.946 /_  150.9 =     -46.27 +j    25.737
25           2        0.0030853 /_  145.0 =  -0.0025276 +j 0.0017692
25           3            48.09 /_  -88.2 =     1.5132 +j   -48.066

ELEMENT = "Line.L25"
25R          1            17.64 /_  -29.1 =     15.413 +j   -8.5796
25R          3           24.046 /_   91.8 =    -0.7574 +j    24.034
------------
26           1            17.64 /_  150.9 =    -15.412 +j    8.5805
26           3           24.047 /_  -88.2 =    0.75667 +j   -24.035

ELEMENT = "Line.L26"
25           1           35.196 /_  -29.1 =     30.761 +j   -17.104
25           2        0.0030853 /_  -35.0 =  0.0025276 +j -0.0017692
25           3           24.044 /_   91.8 =   -0.75576 +j    24.032
------------
28           1           35.197 /_  150.9 =    -30.761 +j    17.105
28           2        0.0024976 /_  145.0 =  -0.0020462 +j 0.0014322
28           3           24.044 /_  -88.2 =    0.75525 +j   -24.032

ELEMENT = "Line.L27"
26           1            17.64 /_  -29.1 =     15.412 +j   -8.5805
26           3       0.00072462 /_ -142.6 =  -0.00057576 +j -0.00043997
------------
27           1            17.64 /_  150.9 =    -15.412 +j    8.5812
27           3       1.029E-011 /_ -135.0 =  -7.276E-012 +j -7.276E-012

ELEMENT = "Line.L28"
26           3           24.047 /_   91.8 =   -0.75609 +j    24.035
------------
31           3           24.047 /_  -88.2 =    0.75569 +j   -24.035

ELEMENT = "Line.L29"
27           1            17.64 /_  -29.1 =     15.412 +j   -8.5812
------------
33           1           17.641 /_  150.9 =    -15.412 +j    8.5822

ELEMENT = "Line.L30"
28           1           17.556 /_  -29.1 =     15.343 +j   -8.5335
28           2        0.0024976 /_  -35.0 =  0.0020462 +j -0.0014322
28           3           24.044 /_   91.8 =   -0.75525 +j    24.032
------------
29           1           17.556 /_  150.9 =    -15.342 +j    8.5345
29           2        0.0016161 /_  145.0 =  -0.001324 +j 0.00092668
29           3           24.045 /_  -88.2 =    0.75447 +j   -24.033

ELEMENT = "Line.L31"
29           1        0.0018727 /_   83.4 =  0.00021411 +j 0.0018604
29           2        0.0016161 /_  -35.0 =   0.001324 +j -0.00092668
29           3           24.045 /_   91.8 =   -0.75447 +j    24.033
------------
30           1       0.00068098 /_  -96.6 =  -7.7856E-005 +j -0.00067652
30           2       0.00058767 /_  145.0 =  -0.00048148 +j 0.00033696
30           3           24.045 /_  -88.2 =    0.75356 +j   -24.034

ELEMENT = "Line.L32"
30           1       0.00068098 /_   83.4 =  7.7856E-005 +j 0.00067652
30           2       0.00058767 /_  -35.0 =  0.00048148 +j -0.00033696
30           3       0.00064064 /_ -143.9 =  -0.00051778 +j -0.00037726
------------
250          1         1.5E-011 /_  104.0 =  -3.638E-012 +j 1.4552E-011
250          2      1.2202E-011 /_   26.6 =  1.0914E-011 +j 5.457E-012
250          3        3.71E-011 /_ -101.3 =  -7.276E-012 +j -3.638E-011

ELEMENT = "Line.L33"
31           3           12.027 /_   91.8 =   -0.37717 +j    12.021
------------
32           3           12.027 /_  -88.2 =    0.37663 +j   -12.021

ELEMENT = "Line.L34"
34           3           35.664 /_   92.1 =    -1.2789 +j    35.641
------------
15           3           35.664 /_  -87.9 =     1.2787 +j   -35.641

ELEMENT = "Line.L35"
35           1           17.505 /_  -29.0 =     15.314 +j   -8.4798
35           2            24.45 /_ -148.1 =    -20.766 +j   -12.907
------------
36           1           17.506 /_  151.0 =    -15.314 +j    8.4815
36           2           24.451 /_   31.9 =     20.767 +j    12.906

ELEMENT = "Line.L36"
35           1           108.04 /_  -35.1 =     88.412 +j   -62.098
35           2           125.64 /_ -155.4 =    -114.25 +j   -52.281
35           3           114.47 /_   86.5 =     6.9388 +j    114.26
------------
40           1           108.04 /_  144.9 =    -88.412 +j    62.099
40           2           125.64 /_   24.6 =     114.25 +j     52.28
40           3           114.47 /_  -93.5 =    -6.9394 +j   -114.26

ELEMENT = "Line.L37"
36           1           17.506 /_  -29.0 =     15.314 +j   -8.4815
------------
37           1           17.506 /_  151.0 =    -15.314 +j    8.4821

ELEMENT = "Line.L38"
36           2           24.451 /_ -148.1 =    -20.767 +j   -12.906
------------
38           2           24.451 /_   31.9 =     20.768 +j    12.906

ELEMENT = "Line.L39"
38           2           12.104 /_ -148.1 =    -10.281 +j   -6.3877
------------
39           2           12.104 /_   31.9 =     10.281 +j    6.3873

ELEMENT = "Line.L40"
40           3           11.991 /_   91.8 =    -0.3691 +j    11.986
------------
41           3           11.992 /_  -88.2 =    0.36851 +j   -11.986

ELEMENT = "Line.L41"
40           1           108.04 /_  -35.1 =     88.412 +j   -62.099
40           2           125.64 /_ -155.4 =    -114.25 +j    -52.28
40           3           102.53 /_   85.9 =     7.3085 +j    102.27
------------
42           1           108.04 /_  144.9 =    -88.412 +j      62.1
42           2           125.65 /_   24.6 =     114.25 +j     52.28
42           3           102.54 /_  -94.1 =    -7.3092 +j   -102.27

ELEMENT = "Line.L42"
42           2           25.129 /_ -148.2 =    -21.357 +j   -13.241
------------
43           2           25.129 /_   31.8 =     21.358 +j    13.241

ELEMENT = "Line.L43"
42           1           99.197 /_  -35.6 =     80.629 +j   -57.784
42           2           100.76 /_ -157.2 =    -92.895 +j   -39.038
42           3           102.54 /_   85.9 =     7.3092 +j    102.27
------------
44           1           99.197 /_  144.4 =    -80.629 +j    57.784
44           2           100.76 /_   22.8 =     92.895 +j    39.038
44           3           102.54 /_  -94.1 =    -7.3097 +j   -102.27

ELEMENT = "Line.L44"
44           1           17.736 /_  -29.0 =     15.505 +j   -8.6117
------------
45           1           17.737 /_  151.0 =    -15.505 +j    8.6121

ELEMENT = "Line.L45"
44           1           81.603 /_  -37.1 =     65.124 +j   -49.173
44           2           100.76 /_ -157.2 =    -92.895 +j   -39.038
44           3           102.54 /_   85.9 =     7.3097 +j    102.27
------------
47           1           81.604 /_  142.9 =    -65.124 +j    49.174
47           2           100.77 /_   22.8 =     92.896 +j    39.038
47           3           102.54 /_  -94.1 =    -7.3104 +j   -102.27

ELEMENT = "Line.L46"
45           1           8.9162 /_  -29.1 =     7.7945 +j   -4.3296
------------
46           1           8.9165 /_  150.9 =    -7.7944 +j    4.3302

ELEMENT = "Line.L47"
47           1           37.963 /_  -38.0 =     29.901 +j   -23.391
47           2           39.039 /_ -157.2 =    -35.991 +j   -15.123
47           3           38.444 /_   82.6 =     4.9271 +j    38.127
------------
48           1           37.964 /_  142.0 =    -29.901 +j    23.392
48           2            39.04 /_   22.8 =     35.992 +j    15.123
48           3           38.444 /_  -97.4 =    -4.9275 +j   -38.127

ELEMENT = "Line.L48"
47           1           24.457 /_  -34.8 =      20.09 +j   -13.948
47           2           42.515 /_ -157.2 =    -39.195 +j   -16.471
47           3           45.095 /_   90.1 =  -0.075444 +j    45.095
------------
49           1           24.457 /_  145.2 =     -20.09 +j    13.948
49           2           42.516 /_   22.8 =     39.196 +j    16.471
49           3           45.095 /_  -89.9 =   0.074691 +j   -45.095

ELEMENT = "Line.L49"
49           1           8.9194 /_  -29.1 =     7.7964 +j   -4.3326
49           2        0.0031554 /_   -9.8 =  0.0031098 +j -0.00053455
49           3           24.065 /_   91.6 =   -0.66106 +j    24.055
------------
50           1           8.9195 /_  150.9 =    -7.7962 +j    4.3332
50           2        0.0023666 /_  170.2 =  -0.0023324 +j 0.00040093
50           3           24.065 /_  -88.4 =    0.66031 +j   -24.056

ELEMENT = "Line.L50"
50           1           8.9195 /_  -29.1 =     7.7962 +j   -4.3332
50           2        0.0023666 /_   -9.8 =  0.0023324 +j -0.00040093
50           3        0.0024009 /_ -160.2 =  -0.0022583 +j -0.00081514
------------
51           1           8.9196 /_  150.9 =     -7.796 +j    4.3338
51           2        0.0015777 /_  170.2 =  -0.0015549 +j 0.0002673
51           3        0.0016006 /_   19.8 =  0.0015055 +j 0.00054344

ELEMENT = "Line.L51"
51           1        0.0012207 /_   69.8 =  0.0004221 +j 0.0011454
51           2        0.0015777 /_   -9.8 =  0.0015549 +j -0.0002673
51           3        0.0016006 /_ -160.2 =  -0.0015055 +j -0.00054344
------------
151          1       7.431E-008 /_   -2.5 =  7.4241E-008 +j -3.2051E-009
151          2      1.4624E-008 /_ -122.0 =  -7.7489E-009 +j -1.2402E-008
151          3      1.7604E-008 /_  117.8 =  -8.2E-009 +j 1.5578E-008

ELEMENT = "Line.L52"
52           1           395.22 /_  -17.3 =     377.23 +j   -117.86
52           2           299.68 /_ -133.5 =    -206.14 +j   -217.51
52           3           301.57 /_  108.8 =    -97.344 +j    285.43
------------
53           1           395.22 /_  162.7 =    -377.23 +j    117.86
53           2           299.68 /_   46.5 =     206.14 +j    217.51
53           3           301.57 /_  -71.2 =     97.343 +j   -285.43

ELEMENT = "Line.L53"
53           1           377.83 /_  -16.8 =     361.71 +j   -109.19
53           2           299.68 /_ -133.5 =    -206.14 +j   -217.51
53           3           301.57 /_  108.8 =    -97.343 +j    285.43
------------
54           1           377.83 /_  163.2 =    -361.71 +j    109.19
54           2           299.68 /_   46.5 =     206.14 +j    217.51
54           3           301.57 /_  -71.2 =     97.343 +j   -285.43

ELEMENT = "Line.L54"
54           1           8.7303 /_  -29.3 =     7.6147 +j   -4.2701
54           2            12.01 /_ -148.3 =    -10.214 +j   -6.3186
54           3        0.0016042 /_ -155.8 =  -0.0014627 +j -0.00065876
------------
55           1           8.7308 /_  150.7 =    -7.6148 +j     4.271
55           2           12.011 /_   31.7 =     10.214 +j    6.3181
55           3       0.00080211 /_   24.2 =  0.00073136 +j 0.00032939

ELEMENT = "Line.L55"
54           1           369.32 /_  -16.5 =      354.1 +j   -104.92
54           2           288.08 /_ -132.9 =    -195.93 +j    -211.2
54           3           301.57 /_  108.8 =    -97.342 +j    285.43
------------
57           1           369.32 /_  163.5 =     -354.1 +j    104.92
57           2           288.08 /_   47.1 =     195.93 +j    211.19
57           3           301.57 /_  -71.2 =     97.341 +j   -285.43

ELEMENT = "Line.L56"
55           1       0.00087149 /_   95.9 =  -8.9338E-005 +j 0.0008669
55           2           12.011 /_ -148.3 =    -10.214 +j   -6.3181
55           3       0.00080211 /_ -155.8 =  -0.00073136 +j -0.00032939
------------
56           1      9.4954E-012 /_   73.3 =  2.7285E-012 +j 9.0949E-012
56           2           12.011 /_   31.7 =     10.215 +j    6.3175
56           3       1.627E-011 /_  -26.6 =  1.4552E-011 +j -7.276E-012

ELEMENT = "Line.L57"
57           2           24.409 /_ -148.5 =    -20.815 +j   -12.748
------------
58           2           24.409 /_   31.5 =     20.816 +j    12.748

ELEMENT = "Line.L58"
57           1           369.32 /_  -16.5 =      354.1 +j   -104.92
57           2           264.66 /_ -131.4 =    -175.11 +j   -198.45
57           3           301.57 /_  108.8 =    -97.341 +j    285.43
------------
60           1           369.32 /_  163.5 =     -354.1 +j    104.93
60           2           264.66 /_   48.6 =     175.12 +j    198.45
60           3           301.57 /_  -71.2 =     97.338 +j   -285.43

ELEMENT = "Line.L59"
58           2           12.062 /_ -148.5 =    -10.286 +j   -6.2988
------------
59           2           12.062 /_   31.5 =     10.287 +j    6.2985

ELEMENT = "Line.L60"
60           1        0.0018256 /_   91.1 =  -3.6202E-005 +j 0.0018253
60           2        0.0017489 /_  -40.4 =  0.0013324 +j -0.0011329
60           3        0.0015735 /_ -149.3 =  -0.0013523 +j -0.00080437
------------
61           1      1.3603E-005 /_   87.8 =  5.1678E-007 +j 1.3593E-005
61           2      1.4015E-005 /_  -30.4 =  1.2088E-005 +j -7.092E-006
61           3      1.3903E-005 /_ -151.1 =  -1.2168E-005 +j -6.7261E-006

ELEMENT = "Line.L61"
60           1           46.417 /_  -44.9 =     32.887 +j   -32.757
60           2           64.767 /_ -148.8 =    -55.377 +j   -33.588
60           3           101.95 /_   91.8 =    -3.2434 +j    101.89
------------
62           1           46.422 /_  135.1 =    -32.886 +j    32.764
62           2           64.771 /_   31.2 =     55.384 +j    33.584
62           3           101.95 /_  -88.2 =     3.2367 +j    -101.9

ELEMENT = "Line.L62"
62           1           46.422 /_  -44.9 =     32.886 +j   -32.764
62           2           64.771 /_ -148.8 =    -55.384 +j   -33.584
62           3           77.964 /_   92.1 =    -2.8326 +j    77.912
------------
63           1           46.425 /_  135.1 =    -32.886 +j    32.769
63           2           64.773 /_   31.2 =     55.388 +j    33.581
63           3           77.966 /_  -87.9 =     2.8279 +j   -77.915

ELEMENT = "Line.L63"
63           1           29.228 /_  -53.8 =     17.276 +j   -23.576
63           2           64.773 /_ -148.8 =    -55.388 +j   -33.581
63           3           77.966 /_   92.1 =    -2.8279 +j    77.915
------------
64           1           29.236 /_  126.2 =    -17.275 +j    23.586
64           2           64.778 /_   31.2 =     55.398 +j    33.575
64           3            77.97 /_  -87.9 =     2.8184 +j   -77.919

ELEMENT = "Line.L64"
64           1           29.236 /_  -53.8 =     17.275 +j   -23.586
64           2           18.525 /_ -152.4 =    -16.412 +j   -8.5927
64           3            77.97 /_   92.1 =    -2.8184 +j    77.919
------------
65           1           29.246 /_  126.2 =    -17.274 +j    23.599
65           2           18.532 /_   27.6 =     16.423 +j    8.5857
65           3           77.976 /_  -87.9 =      2.807 +j   -77.925

ELEMENT = "Line.L65"
65           1        0.0096631 /_   86.1 =  0.00066266 +j 0.0096404
65           2         0.010069 /_  -32.3 =  0.0085141 +j -0.0053748
65           3           45.779 /_   92.5 =    -1.9646 +j    45.737
------------
66           1      5.9117E-012 /_  180.0 =  -5.9117E-012 +j         0
66           2      7.1179E-012 /_   63.4 =  3.1832E-012 +j 6.3665E-012
66           3           45.783 /_  -87.6 =     1.9559 +j   -45.741

ELEMENT = "Line.L66"
67           1           72.221 /_  -30.9 =     61.949 +j   -37.123
------------
68           1           72.221 /_  149.1 =    -61.949 +j    37.123

ELEMENT = "Line.L67"
67           1           140.37 /_   12.8 =     136.88 +j    31.078
67           2           143.39 /_ -115.8 =    -62.413 +j    -129.1
67           3           140.38 /_  130.0 =     -90.25 +j    107.53
------------
72           1           140.37 /_ -167.2 =    -136.88 +j   -31.077
72           2           143.39 /_   64.2 =     62.414 +j     129.1
72           3           140.38 /_  -50.0 =     90.249 +j   -107.53

ELEMENT = "Line.L68"
67           1           110.39 /_  -31.2 =     94.423 +j   -57.187
67           2           64.107 /_ -149.3 =    -55.125 +j   -32.725
67           3           70.453 /_   90.8 =    -0.9912 +j    70.446
------------
97           1           110.39 /_  148.8 =    -94.423 +j    57.188
97           2           64.108 /_   30.7 =     55.126 +j    32.725
97           3           70.454 /_  -89.2 =    0.99039 +j   -70.447

ELEMENT = "Line.L69"
68           1            60.22 /_  -30.9 =     51.649 +j   -30.965
------------
69           1            60.22 /_  149.1 =    -51.649 +j    30.965

ELEMENT = "Line.L70"
69           1           36.164 /_  -31.0 =     31.011 +j   -18.604
------------
70           1           36.164 /_  149.0 =    -31.011 +j    18.605

ELEMENT = "Line.L71"
70           1           24.117 /_  -31.0 =     20.679 +j   -12.409
------------
71           1           24.117 /_  149.0 =    -20.679 +j     12.41

ELEMENT = "Line.L72"
72           3           60.434 /_   90.7 =   -0.72572 +j     60.43
------------
73           3           60.434 /_  -89.3 =    0.72521 +j    -60.43

ELEMENT = "Line.L73"
72           1           140.37 /_   12.8 =     136.88 +j    31.077
72           2           143.39 /_ -115.8 =    -62.414 +j    -129.1
72           3           101.16 /_  152.3 =    -89.523 +j      47.1
------------
76           1           140.37 /_ -167.2 =    -136.88 +j   -31.076
76           2           143.39 /_   64.2 =     62.414 +j     129.1
76           3           101.16 /_  -27.7 =     89.523 +j     -47.1

ELEMENT = "Line.L74"
73           3           40.628 /_   90.7 =   -0.47666 +j    40.625
------------
74           3           40.629 /_  -89.3 =    0.47601 +j   -40.626

ELEMENT = "Line.L75"
74           3           19.866 /_   90.7 =   -0.22934 +j    19.865
------------
75           3           19.867 /_  -89.3 =    0.22859 +j   -19.866

ELEMENT = "Line.L76"
76           1           78.502 /_   50.8 =     49.662 +j    60.796
76           2           77.711 /_  -62.5 =     35.877 +j   -68.933
76           3           76.766 /_  179.6 =    -76.764 +j   0.58292
------------
77           1             78.5 /_ -129.2 =    -49.662 +j   -60.795
77           2            77.71 /_  117.5 =    -35.876 +j    68.932
77           3           76.765 /_   -0.4 =     76.763 +j  -0.58366

ELEMENT = "Line.L77"
76           1           43.024 /_   -4.5 =      42.89 +j   -3.3974
76           2           68.831 /_ -133.6 =    -47.437 +j   -49.874
76           3           21.679 /_  152.8 =    -19.283 +j    9.9059
------------
86           1           43.024 /_  175.5 =     -42.89 +j    3.3994
86           2           68.832 /_   46.4 =     47.439 +j    49.873
86           3           21.677 /_  -27.2 =     19.281 +j   -9.9069

ELEMENT = "Line.L78"
77           1             78.5 /_   50.8 =     49.662 +j    60.795
77           2           79.503 /_  -47.0 =      54.26 +j   -58.108
77           3           76.765 /_  179.6 =    -76.763 +j   0.58366
------------
78           1             78.5 /_ -129.2 =    -49.662 +j   -60.795
78           2           79.503 /_  133.0 =     -54.26 +j    58.108
78           3           76.764 /_   -0.4 =     76.762 +j  -0.58384

ELEMENT = "Line.L79"
78           1           25.832 /_  -31.1 =     22.108 +j   -13.361
78           2       0.00066976 /_  -29.5 =  0.00058321 +j -0.00032931
78           3       0.00079531 /_ -148.6 =  -0.00067879 +j -0.00041445
------------
79           1           25.832 /_  148.9 =    -22.108 +j    13.362
79           2      3.3982E-011 /_  -15.5 =  3.2742E-011 +j -9.0949E-012
79           3      2.3009E-011 /_  -71.6 =  7.276E-012 +j -2.1828E-011

ELEMENT = "Line.L80"
78           1           79.109 /_   69.6 =     27.553 +j    74.156
78           2           79.502 /_  -47.0 =      54.26 +j   -58.108
78           3           76.764 /_  179.6 =    -76.762 +j   0.58425
------------
80           1           79.107 /_ -110.4 =    -27.553 +j   -74.154
80           2           79.501 /_  133.0 =    -54.258 +j    58.107
80           3           76.762 /_   -0.4 =      76.76 +j  -0.58513

ELEMENT = "Line.L81"
80           1           79.107 /_   69.6 =     27.553 +j    74.154
80           2           86.683 /_  -33.1 =      72.62 +j   -47.331
80           3           76.762 /_  179.6 =     -76.76 +j   0.58513
------------
81           1           79.107 /_ -110.4 =    -27.553 +j   -74.153
81           2           86.682 /_  146.9 =     -72.62 +j     47.33
81           3           76.762 /_   -0.4 =      76.76 +j  -0.58545

ELEMENT = "Line.L82"
81           1           79.107 /_   69.6 =     27.553 +j    74.153
81           2           86.682 /_  -33.1 =      72.62 +j    -47.33
81           3           81.883 /_ -159.2 =    -76.542 +j   -29.089
------------
82           1           79.106 /_ -110.4 =    -27.553 +j   -74.153
82           2           86.681 /_  146.9 =    -72.619 +j     47.33
82           3           81.882 /_   20.8 =     76.541 +j    29.089

ELEMENT = "Line.L83"
81           3           29.676 /_   90.4 =   -0.21764 +j    29.675
------------
84           3           29.676 /_  -89.6 =    0.21637 +j   -29.675

ELEMENT = "Line.L84"
82           1           86.835 /_   85.3 =     7.1558 +j    86.539
82           2           86.681 /_  -33.1 =     72.619 +j    -47.33
82           3           81.882 /_ -159.2 =    -76.541 +j   -29.089
------------
83           1           86.834 /_  -94.7 =    -7.1556 +j   -86.539
83           2           86.681 /_  146.9 =    -72.618 +j     47.33
83           3           81.881 /_   20.8 =      76.54 +j    29.088

ELEMENT = "Line.L85"
84           3           19.793 /_   90.4 =   -0.14169 +j    19.792
------------
85           3           19.793 /_  -89.6 =     0.1408 +j   -19.792

ELEMENT = "Line.L86"
86           1           43.024 /_   -4.5 =      42.89 +j   -3.3994
86           2           58.623 /_ -130.7 =    -38.209 +j   -44.461
86           3           21.677 /_  152.8 =    -19.281 +j    9.9069
------------
87           1           43.024 /_  175.5 =    -42.889 +j    3.4009
87           2           58.624 /_   49.3 =      38.21 +j    44.461
87           3           21.676 /_  -27.2 =      19.28 +j   -9.9077

ELEMENT = "Line.L87"
87           1           24.046 /_   22.1 =     22.282 +j    9.0402
------------
88           1           24.046 /_ -157.9 =    -22.282 +j   -9.0398

ELEMENT = "Line.L88"
87           1           24.072 /_  -31.1 =     20.608 +j   -12.441
87           2           39.007 /_ -120.4 =    -19.712 +j    -33.66
87           3           21.676 /_  152.8 =     -19.28 +j    9.9077
------------
89           1           24.072 /_  148.9 =    -20.607 +j    12.442
89           2           39.007 /_   59.6 =     19.713 +j     33.66
89           3           21.676 /_  -27.2 =     19.279 +j   -9.9082

ELEMENT = "Line.L89"
89           2           22.909 /_  -92.9 =    -1.1693 +j   -22.879
------------
90           2           22.909 /_   87.1 =     1.1698 +j    22.879

ELEMENT = "Line.L90"
89           1           24.072 /_  -31.1 =     20.607 +j   -12.442
89           2           21.449 /_ -149.8 =    -18.543 +j   -10.781
89           3           21.676 /_  152.8 =    -19.279 +j    9.9082
------------
91           1           24.072 /_  148.9 =    -20.607 +j    12.443
91           2            21.45 /_   30.2 =     18.544 +j     10.78
91           3           21.675 /_  -27.2 =     19.278 +j   -9.9086

ELEMENT = "Line.L91"
91           3           21.674 /_  152.8 =    -19.276 +j    9.9096
------------
92           3           21.674 /_  -27.2 =     19.276 +j   -9.9099

ELEMENT = "Line.L92"
91           1           24.072 /_  -31.1 =     20.607 +j   -12.443
91           2            21.45 /_ -149.8 =    -18.544 +j    -10.78
91           3        0.0018554 /_ -148.6 =  -0.0015836 +j -0.00096673
------------
93           1           24.073 /_  148.9 =    -20.607 +j    12.443
93           2            21.45 /_   30.2 =     18.544 +j     10.78
93           3        0.0010602 /_   31.4 =  0.00090495 +j 0.00055242

ELEMENT = "Line.L93"
93           1           24.073 /_  -31.1 =     20.607 +j   -12.444
------------
94           1           24.073 /_  148.9 =    -20.607 +j    12.445

ELEMENT = "Line.L94"
93           1       0.00099219 /_   77.8 =  0.00021027 +j 0.00096966
93           2            21.45 /_ -149.8 =    -18.544 +j    -10.78
93           3        0.0010602 /_ -148.6 =  -0.00090495 +j -0.00055242
------------
95           1      9.0949E-012 /_ -143.1 =  -7.276E-012 +j -5.457E-012
95           2            21.45 /_   30.2 =     18.545 +j     10.78
95           3       7.276E-012 /_  -90.0 =          0 +j -7.276E-012

ELEMENT = "Line.L95"
95           2           10.727 /_ -149.8 =     -9.274 +j   -5.3902
------------
96           2           10.727 /_   30.2 =     9.2744 +j      5.39

ELEMENT = "Line.L96"
97           1           23.993 /_  -30.9 =     20.586 +j   -12.325
97           2            21.35 /_ -149.2 =    -18.346 +j   -10.919
97           3           20.818 /_   90.8 =   -0.29571 +j    20.816
------------
98           1           23.994 /_  149.1 =    -20.586 +j    12.325
98           2           21.351 /_   30.8 =     18.347 +j    10.919
98           3           20.819 /_  -89.2 =    0.29481 +j   -20.816

ELEMENT = "Line.L97"
98           1        0.0049342 /_   82.3 =  0.00065737 +j 0.0048902
98           2           21.351 /_ -149.2 =    -18.347 +j   -10.919
98           3           20.819 /_   90.8 =   -0.29481 +j    20.816
------------
99           1        0.0032896 /_  -97.7 =  -0.00043821 +j -0.0032602
99           2           21.352 /_   30.8 =     18.349 +j    10.918
99           3           20.819 /_  -89.2 =    0.29303 +j   -20.817

ELEMENT = "Line.L98"
99           1        0.0032896 /_   82.3 =  0.00043821 +j 0.0032602
99           2        0.0036134 /_  -24.8 =  0.0032802 +j -0.0015155
99           3           20.819 /_   90.8 =   -0.29303 +j    20.817
------------
100          1        0.0023924 /_  -97.7 =  -0.0003187 +j -0.0023711
100          2        0.0026279 /_  155.2 =  -0.0023856 +j 0.0011022
100          3            20.82 /_  -89.2 =    0.29206 +j   -20.818

ELEMENT = "Line.L99"
100          1        0.0023924 /_   82.3 =  0.0003187 +j 0.0023711
100          2        0.0026279 /_  -24.8 =  0.0023856 +j -0.0011022
100          3        0.0028149 /_ -157.2 =  -0.002595 +j -0.0010909
------------
450          1      1.0168E-012 /_  -63.4 =  4.5475E-013 +j -9.0949E-013
450          2      4.8978E-012 /_ -158.2 =  -4.5475E-012 +j -1.819E-012
450          3      2.5724E-012 /_  -45.0 =  1.819E-012 +j -1.819E-012

ELEMENT = "Line.L118"
197          1           86.398 /_  -31.3 =     73.837 +j   -44.863
197          2           42.758 /_ -149.3 =     -36.78 +j   -21.805
197          3           49.636 /_   90.8 =   -0.69468 +j    49.631
------------
101          1           86.398 /_  148.7 =    -73.837 +j    44.864
101          2           42.758 /_   30.7 =     36.781 +j    21.805
101          3           49.636 /_  -89.2 =    0.69387 +j   -49.631

ELEMENT = "Line.L100"
101          3           49.638 /_   90.8 =   -0.68868 +j    49.633
------------
102          3           49.638 /_  -89.2 =    0.68826 +j   -49.634

ELEMENT = "Line.L101"
101          1           86.398 /_  -31.3 =     73.837 +j   -44.864
101          2           42.758 /_ -149.3 =    -36.781 +j   -21.805
101          3        0.0056317 /_ -157.2 =   -0.00519 +j -0.0021863
------------
105          1           86.398 /_  148.7 =    -73.837 +j    44.864
105          2           42.759 /_   30.7 =     36.781 +j    21.805
105          3        0.0046637 /_   22.8 =  0.0042979 +j 0.0018107

ELEMENT = "Line.L102"
102          3           39.732 /_   90.8 =   -0.54388 +j    39.729
------------
103          3           39.733 /_  -89.2 =    0.54327 +j   -39.729

ELEMENT = "Line.L103"
103          3           19.885 /_   90.8 =   -0.26603 +j    19.883
------------
104          3           19.886 /_  -89.2 =    0.26473 +j   -19.884

ELEMENT = "Line.L104"
105          2           42.761 /_ -149.3 =    -36.785 +j   -21.803
------------
106          2           42.762 /_   30.7 =     36.786 +j    21.803

ELEMENT = "Line.L105"
105          1           86.398 /_  -31.3 =     73.837 +j   -44.864
105          2        0.0043535 /_  -24.8 =  0.0039513 +j -0.0018277
105          3        0.0046637 /_ -157.2 =  -0.0042979 +j -0.0018107
------------
108          1           86.399 /_  148.7 =    -73.837 +j    44.865
108          2        0.0032857 /_  155.2 =  -0.0029822 +j 0.0013794
108          3        0.0035198 /_   22.8 =  0.0032436 +j 0.0013666

ELEMENT = "Line.L106"
106          2           21.398 /_ -149.4 =    -18.411 +j   -10.906
------------
107          2           21.399 /_   30.6 =     18.412 +j    10.905

ELEMENT = "Line.L107"
108          1             86.4 /_  -31.3 =     73.836 +j   -44.868
------------
109          1             86.4 /_  148.7 =    -73.836 +j    44.869

ELEMENT = "Line.L108"
108          1        0.0029806 /_   82.2 =  0.00040564 +j 0.0029529
108          2        0.0032857 /_  -24.8 =  0.0029822 +j -0.0013794
108          3        0.0035198 /_ -157.2 =  -0.0032436 +j -0.0013666
------------
300          1      6.4311E-013 /_ -135.0 =  -4.5475E-013 +j -4.5475E-013
300          2      2.8761E-012 /_   18.4 =  2.7285E-012 +j 9.0949E-013
300          3      5.1449E-012 /_  135.0 =  -3.638E-012 +j 3.638E-012

ELEMENT = "Line.L109"
109          1           62.169 /_  -31.3 =     53.113 +j   -32.311
------------
110          1           62.169 /_  148.7 =    -53.113 +j    32.312

ELEMENT = "Line.L110"
110          1           12.158 /_  -31.3 =     10.391 +j   -6.3128
------------
111          1           12.159 /_  148.7 =    -10.391 +j     6.314

ELEMENT = "Line.L111"
110          1           50.011 /_  -31.3 =     42.722 +j   -25.999
------------
112          1           50.011 /_  148.7 =    -42.721 +j    25.999

ELEMENT = "Line.L112"
112          1           37.574 /_  -31.3 =     32.092 +j   -19.541
------------
113          1           37.574 /_  148.7 =    -32.092 +j    19.542

ELEMENT = "Line.L113"
113          1           12.197 /_  -31.3 =     10.417 +j   -6.3447
------------
114          1           12.198 /_  148.7 =    -10.417 +j    6.3453

ELEMENT = "Line.L114"
135          1           133.78 /_  -31.7 =     113.87 +j    -70.23
135          2           159.27 /_ -155.7 =    -145.16 +j   -65.536
135          3           114.47 /_   86.5 =     6.9376 +j    114.26
------------
35           1           133.78 /_  148.3 =    -113.87 +j     70.23
35           2           159.27 /_   24.3 =     145.16 +j    65.536
35           3           114.47 /_  -93.5 =    -6.9388 +j   -114.26

ELEMENT = "Line.L116"
152          1           412.58 /_  -17.8 =     392.73 +j   -126.43
152          2           299.68 /_ -133.5 =    -206.14 +j   -217.52
152          3           301.57 /_  108.8 =    -97.345 +j    285.43
------------
52           1           412.58 /_  162.2 =    -392.73 +j    126.43
52           2           299.68 /_   46.5 =     206.14 +j    217.51
52           3           301.57 /_  -71.2 =     97.344 +j   -285.43

ELEMENT = "Line.L117"
160R         1           299.99 /_  -12.2 =     293.25 +j   -63.231
160R         2              200 /_ -126.0 =    -117.54 +j   -161.82
160R         3              200 /_  117.1 =    -91.242 +j    177.97
------------
67           1           299.99 /_  167.8 =    -293.25 +j    63.232
67           2              200 /_   54.0 =     117.54 +j    161.82
67           3              200 /_  -62.9 =     91.241 +j   -177.98

ELEMENT = "Line.SW1"
150R         1           700.28 /_  -22.9 =     645.32 +j   -271.96
150R         2           499.94 /_ -141.8 =    -392.73 +j   -309.36
150R         3           599.96 /_   99.4 =    -97.893 +j    591.92
------------
149          1           700.28 /_  157.1 =    -645.32 +j    271.96
149          2           499.94 /_   38.2 =     392.73 +j    309.36
149          3           599.96 /_  -80.6 =     97.893 +j   -591.92

ELEMENT = "Line.SW2"
13           1           412.58 /_  -17.8 =     392.73 +j   -126.43
13           2           299.68 /_ -133.5 =    -206.14 +j   -217.52
13           3           301.57 /_  108.8 =    -97.345 +j    285.43
------------
152          1           412.58 /_  162.2 =    -392.73 +j    126.43
152          2           299.68 /_   46.5 =     206.14 +j    217.52
152          3           301.57 /_  -71.2 =     97.345 +j   -285.43

ELEMENT = "Line.SW3"
18           1           133.78 /_  -31.7 =     113.87 +j    -70.23
18           2           159.27 /_ -155.7 =    -145.16 +j   -65.536
18           3           114.47 /_   86.5 =     6.9376 +j    114.26
------------
135          1           133.78 /_  148.3 =    -113.87 +j     70.23
135          2           159.27 /_   24.3 =     145.16 +j    65.536
135          3           114.47 /_  -93.5 =    -6.9376 +j   -114.26

ELEMENT = "Line.SW4"
60           1           320.62 /_  -12.2 =     313.42 +j   -67.578
60           2           203.75 /_ -126.0 =    -119.74 +j   -164.86
60           3           206.25 /_  117.1 =    -94.093 +j    183.54
------------
160          1           320.62 /_  167.8 =    -313.42 +j    67.578
160          2           203.75 /_   54.0 =     119.74 +j    164.86
160          3           206.25 /_  -62.9 =     94.093 +j   -183.54

ELEMENT = "Line.SW5"
97           1           86.398 /_  -31.3 =     73.837 +j   -44.863
97           2           42.758 /_ -149.3 =     -36.78 +j   -21.805
97           3           49.636 /_   90.8 =   -0.69468 +j    49.631
------------
197          1           86.398 /_  148.7 =    -73.837 +j    44.863
197          2           42.758 /_   30.7 =      36.78 +j    21.805
197          3           49.636 /_  -89.2 =    0.69468 +j   -49.631

ELEMENT = "Line.SW6"
61           1      1.3665E-005 /_  -96.0 =  -1.4305E-006 +j -1.359E-005
61           2      1.4107E-005 /_  149.5 =  -1.2159E-005 +j 7.1526E-006
61           3      1.3969E-005 /_   27.4 =  1.2398E-005 +j 6.4373E-006
------------
61S          1      1.3665E-005 /_   84.0 =  1.4305E-006 +j 1.359E-005
61S          2      1.4107E-005 /_  -30.5 =  1.2159E-005 +j -7.1526E-006
61S          3      1.3969E-005 /_ -152.6 =  -1.2398E-005 +j -6.4373E-006

ELEMENT = "Line.SW7"
151          1                0 /_    0.0 =          0 +j         0
151          2                0 /_    0.0 =          0 +j         0
151          3                0 /_    0.0 =          0 +j         0
------------
300_OPEN     1                0 /_    0.0 =          0 +j         0
300_OPEN     2                0 /_    0.0 =          0 +j         0
300_OPEN     3                0 /_    0.0 =          0 +j         0

ELEMENT = "Line.SW8"
54           1                0 /_    0.0 =          0 +j         0
------------
94_OPEN      1                0 /_    0.0 =          0 +j         0

ELEMENT = "Transformer.XFM1"
61S          1      1.3596E-005 /_  -93.5 =  -8.3505E-007 +j -1.3571E-005
61S          2      1.4006E-005 /_  147.7 =  -1.1833E-005 +j 7.4935E-006
61S          3        1.39E-005 /_   27.1 =  1.2377E-005 +j 6.3243E-006
61S          0                0 /_    0.0 =          0 +j         0
------------
610          1      8.1981E-013 /_   33.7 =  6.8212E-013 +j 4.5475E-013
610          2      1.1369E-012 /_  -90.0 =          0 +j -1.1369E-012
610          3      6.4311E-013 /_  135.0 =  -4.5475E-013 +j 4.5475E-013
610          0                0 /_    0.0 =          0 +j         0

ELEMENT = "Capacitor.C83"
83           1           86.834 /_   85.3 =     7.1556 +j    86.539
83           2           86.681 /_  -33.1 =     72.618 +j    -47.33
83           3           85.808 /_ -153.0 =    -76.469 +j    -38.93
------------
83           0           86.834 /_  -94.7 =    -7.1556 +j   -86.539
83           0           86.681 /_  146.9 =    -72.618 +j     47.33
83           0           85.808 /_   27.0 =     76.469 +j     38.93

ELEMENT = "Capacitor.C88A"
88           1           21.532 /_   85.4 =     1.7163 +j    21.464
------------
88           0           21.532 /_  -94.6 =    -1.7163 +j   -21.464

ELEMENT = "Capacitor.C90B"
90           2           21.455 /_  -33.3 =     17.941 +j   -11.765
------------
90           0           21.455 /_  146.7 =    -17.941 +j    11.765

ELEMENT = "Capacitor.C92C"
92           3           21.433 /_ -152.8 =    -19.069 +j   -9.7863
------------
92           0           21.433 /_   27.2 =     19.069 +j    9.7863

ELEMENT = "Transformer.REG2A"
9            1           26.357 /_  -28.1 =     23.247 +j    -12.42
9            0           26.357 /_  151.9 =    -23.247 +j     12.42
------------
9R           1           26.523 /_  151.9 =    -23.393 +j    12.499
9R           0           26.523 /_  -28.1 =     23.393 +j   -12.499

ELEMENT = "Transformer.REG3A"
25           1            17.75 /_  -29.1 =     15.509 +j   -8.6332
25           0            17.75 /_  150.9 =    -15.509 +j    8.6332
------------
25R          1            17.64 /_  150.9 =    -15.413 +j    8.5796
25R          0            17.64 /_  -29.1 =     15.413 +j   -8.5796

ELEMENT = "Transformer.REG4A"
160          1           320.62 /_  -12.2 =     313.42 +j   -67.578
160          0           320.62 /_  167.8 =    -313.42 +j    67.578
------------
160R         1           299.99 /_  167.8 =    -293.25 +j    63.231
160R         0           299.99 /_  -12.2 =     293.25 +j   -63.231

ELEMENT = "Transformer.REG3C"
25           3           24.046 /_   91.8 =    -0.7574 +j    24.034
25           0           24.046 /_  -88.2 =     0.7574 +j   -24.034
------------
25R          3           24.046 /_  -88.2 =     0.7574 +j   -24.034
25R          0           24.046 /_   91.8 =    -0.7574 +j    24.034

ELEMENT = "Transformer.REG4B"
160          2           203.75 /_ -126.0 =    -119.74 +j   -164.86
160          0           203.75 /_   54.0 =     119.74 +j    164.86
------------
160R         2              200 /_   54.0 =     117.54 +j    161.82
160R         0              200 /_ -126.0 =    -117.54 +j   -161.82

ELEMENT = "Transformer.REG4C"
160          3           206.25 /_  117.1 =    -94.093 +j    183.54
160          0           206.25 /_  -62.9 =     94.093 +j   -183.54
------------
160R         3              200 /_  -62.9 =     91.242 +j   -177.97
160R         0              200 /_  117.1 =    -91.242 +j    177.97

= = = = = = = = = = = = = = = = = = =  = = = = = = = = = = =  = =

Power Conversion Elements

  Bus    Phase    Magnitude, A     Angle      (Real)   +j  (Imag)

ELEMENT = "Load.S1A"
1            1           17.115 /_  -27.2 =     15.218 +j   -7.8319
1            0           17.115 /_  152.8 =    -15.218 +j    7.8319

ELEMENT = "Load.S2B"
2            2           11.874 /_ -146.9 =    -9.9507 +j   -6.4783
2            0           11.874 /_   33.1 =     9.9507 +j    6.4783

ELEMENT = "Load.S4C"
4            3           23.359 /_   92.9 =    -1.1859 +j    23.328
4            0           23.359 /_  -87.1 =     1.1859 +j   -23.328

ELEMENT = "Load.S5C"
5            3           12.042 /_   92.9 =   -0.60726 +j    12.026
5            0           12.042 /_  -87.1 =    0.60726 +j   -12.026

ELEMENT = "Load.S6C"
6            3           24.784 /_   92.9 =    -1.2427 +j    24.753
6            0           24.784 /_  -87.1 =     1.2427 +j   -24.753

ELEMENT = "Load.S7A"
7            1           8.6449 /_  -27.7 =     7.6525 +j   -4.0217
7            0           8.6449 /_  152.3 =    -7.6525 +j    4.0217

ELEMENT = "Load.S9A"
9            1            17.43 /_  -28.1 =     15.378 +j   -8.2035
9            0            17.43 /_  151.9 =    -15.378 +j    8.2035

ELEMENT = "Load.S10A"
10           1           8.8203 /_  -28.1 =     7.7795 +j   -4.1564
10           0           8.8203 /_  151.9 =    -7.7795 +j    4.1564

ELEMENT = "Load.S11A"
11           1           17.703 /_  -28.1 =     15.613 +j   -8.3441
11           0           17.703 /_  151.9 =    -15.613 +j    8.3441

ELEMENT = "Load.S12B"
12           2           11.933 /_ -147.4 =    -10.056 +j   -6.4245
12           0           11.933 /_   32.6 =     10.056 +j    6.4245

ELEMENT = "Load.S16C"
16           3           23.782 /_   92.0 =      -0.85 +j    23.767
16           0           23.782 /_  -88.0 =       0.85 +j   -23.767

ELEMENT = "Load.S17C"
17           3           11.883 /_   92.1 =   -0.42741 +j    11.875
17           0           11.883 /_  -87.9 =    0.42741 +j   -11.875

ELEMENT = "Load.S19A"
19           1           17.722 /_  -28.9 =     15.514 +j   -8.5679
19           0           17.722 /_  151.1 =    -15.514 +j    8.5679

ELEMENT = "Load.S20A"
20           1           17.641 /_  -28.9 =      15.44 +j   -8.5327
20           0           17.641 /_  151.1 =     -15.44 +j    8.5327

ELEMENT = "Load.S22B"
22           2           25.277 /_ -148.0 =    -21.436 +j   -13.396
22           0           25.277 /_   32.0 =     21.436 +j    13.396

ELEMENT = "Load.S24C"
24           3           24.027 /_   91.8 =    -0.7598 +j    24.015
24           0           24.027 /_  -88.2 =     0.7598 +j   -24.015

ELEMENT = "Load.S28A"
28           1           17.641 /_  -29.1 =     15.418 +j   -8.5712
28           0           17.641 /_  150.9 =    -15.418 +j    8.5712

ELEMENT = "Load.S29A"
29           1           17.557 /_  -29.1 =     15.342 +j   -8.5363
29           0           17.557 /_  150.9 =    -15.342 +j    8.5363

ELEMENT = "Load.S30C"
30           3           24.046 /_   91.8 =   -0.75307 +j    24.034
30           0           24.046 /_  -88.2 =    0.75307 +j   -24.034

ELEMENT = "Load.S31C"
31           3           12.021 /_   91.8 =   -0.37853 +j    12.015
31           0           12.021 /_  -88.2 =    0.37853 +j   -12.015

ELEMENT = "Load.S32C"
32           3           12.027 /_   91.8 =   -0.37664 +j    12.021
32           0           12.027 /_  -88.2 =    0.37664 +j   -12.021

ELEMENT = "Load.S33A"
33           1           17.641 /_  -29.1 =     15.412 +j   -8.5822
33           0           17.641 /_  150.9 =    -15.412 +j    8.5822

ELEMENT = "Load.S34C"
34           3           24.431 /_   92.1 =   -0.88767 +j    24.414
34           0           24.431 /_  -87.9 =    0.88767 +j   -24.414

ELEMENT = "Load.S35A"
35           1           10.148 /_    2.0 =     10.142 +j    0.3476
35           2           10.148 /_ -178.0 =    -10.142 +j   -0.3476

ELEMENT = "Load.S37A"
37           1           17.506 /_  -29.0 =     15.314 +j   -8.4821
37           0           17.506 /_  151.0 =    -15.314 +j    8.4821

ELEMENT = "Load.S38B"
38           2           12.348 /_ -148.1 =    -10.487 +j    -6.518
38           0           12.348 /_   31.9 =     10.487 +j     6.518

ELEMENT = "Load.S39B"
39           2           12.104 /_ -148.1 =    -10.281 +j   -6.3873
39           0           12.104 /_   31.9 =     10.281 +j    6.3873

ELEMENT = "Load.S41C"
41           3           11.992 /_   91.8 =   -0.36853 +j    11.986
41           0           11.992 /_  -88.2 =    0.36853 +j   -11.986

ELEMENT = "Load.S42A"
42           1           8.8994 /_  -29.0 =     7.7827 +j    -4.316
42           0           8.8994 /_  151.0 =    -7.7827 +j     4.316

ELEMENT = "Load.S43B"
43           2            25.13 /_ -148.2 =    -21.358 +j   -13.241
43           0            25.13 /_   31.8 =     21.358 +j    13.241

ELEMENT = "Load.S45A"
45           1           8.8203 /_  -29.0 =     7.7108 +j   -4.2825
45           0           8.8203 /_  151.0 =    -7.7108 +j    4.2825

ELEMENT = "Load.S46A"
46           1           8.9165 /_  -29.1 =     7.7944 +j   -4.3303
46           0           8.9165 /_  150.9 =    -7.7944 +j    4.3303

ELEMENT = "Load.S47"
47           1            19.21 /_  -38.0 =     15.132 +j   -11.835
47           2            19.21 /_ -157.2 =     -17.71 +j   -7.4437
47           3            19.21 /_   82.6 =     2.4587 +j    19.053
47           0          0.25503 /_   62.3 =    0.11871 +j   0.22571

ELEMENT = "Load.S48"
48           1           37.963 /_  -38.0 =     29.901 +j   -23.392
48           2            39.04 /_ -157.2 =    -35.992 +j   -15.123
48           3           38.444 /_   82.6 =     4.9275 +j    38.127
48           0           1.2262 /_   18.4 =     1.1635 +j    0.3871

ELEMENT = "Load.S49A"
49           1           15.608 /_  -38.0 =     12.294 +j   -9.6157
49           0           15.608 /_  142.0 =    -12.294 +j    9.6157

ELEMENT = "Load.S49B"
49           2           42.519 /_ -157.2 =    -39.199 +j    -16.47
49           0           42.519 /_   22.8 =     39.199 +j     16.47

ELEMENT = "Load.S49C"
49           3           21.048 /_   88.4 =    0.58635 +j     21.04
49           0           21.048 /_  -91.6 =   -0.58635 +j    -21.04

ELEMENT = "Load.S50C"
50           3           24.066 /_   91.6 =   -0.65808 +j    24.057
50           0           24.066 /_  -88.4 =    0.65808 +j   -24.057

ELEMENT = "Load.S51A"
51           1           8.9197 /_  -29.1 =     7.7955 +j   -4.3349
51           0           8.9197 /_  150.9 =    -7.7955 +j    4.3349

ELEMENT = "Load.S52A"
52           1           17.708 /_  -29.0 =     15.495 +j   -8.5729
52           0           17.708 /_  151.0 =    -15.495 +j    8.5729

ELEMENT = "Load.S53A"
53           1           17.777 /_  -29.2 =     15.523 +j   -8.6632
53           0           17.777 /_  150.8 =    -15.523 +j    8.6632

ELEMENT = "Load.S55A"
55           1           8.7313 /_  -29.3 =     7.6149 +j   -4.2719
55           0           8.7313 /_  150.7 =    -7.6149 +j    4.2719

ELEMENT = "Load.S56B"
56           2           12.011 /_ -148.3 =    -10.215 +j   -6.3175
56           0           12.011 /_   31.7 =     10.215 +j    6.3175

ELEMENT = "Load.S58B"
58           2           12.348 /_ -148.5 =     -10.53 +j   -6.4493
58           0           12.348 /_   31.5 =      10.53 +j    6.4493

ELEMENT = "Load.S59B"
59           2           12.062 /_ -148.5 =    -10.287 +j   -6.2986
59           0           12.062 /_   31.5 =     10.287 +j    6.2986

ELEMENT = "Load.S60A"
60           1           9.0472 /_  -30.5 =     7.7939 +j   -4.5941
60           0           9.0472 /_  149.5 =    -7.7939 +j    4.5941

ELEMENT = "Load.S62C"
62           3            23.99 /_   91.0 =   -0.40413 +j    23.986
62           0            23.99 /_  -89.0 =    0.40413 +j   -23.986

ELEMENT = "Load.S63A"
63           1           18.116 /_  -30.5 =      15.61 +j   -9.1933
63           0           18.116 /_  149.5 =     -15.61 +j    9.1933

ELEMENT = "Load.S64B"
64           2           46.304 /_ -147.3 =    -38.986 +j   -24.983
64           0           46.304 /_   32.7 =     38.986 +j    24.983

ELEMENT = "Load.S65A"
65           1            8.766 /_   -7.9 =     8.6821 +j   -1.2099
65           2            8.766 /_  172.1 =    -8.6821 +j    1.2099

ELEMENT = "Load.S65B"
65           2           12.486 /_ -128.4 =    -7.7492 +j   -9.7902
65           3           12.486 /_   51.6 =     7.7492 +j    9.7902

ELEMENT = "Load.S65C"
65           3            23.99 /_  111.0 =    -8.5916 +j    22.399
65           1            23.99 /_  -69.0 =     8.5916 +j   -22.399

ELEMENT = "Load.S66C"
66           3           45.783 /_   92.4 =     -1.956 +j    45.741
66           0           45.783 /_  -87.6 =      1.956 +j   -45.741

ELEMENT = "Load.S68A"
68           1           12.001 /_  -30.9 =       10.3 +j   -6.1585
68           0           12.001 /_  149.1 =      -10.3 +j    6.1585

ELEMENT = "Load.S69A"
69           1           24.056 /_  -30.9 =     20.638 +j   -12.361
69           0           24.056 /_  149.1 =    -20.638 +j    12.361

ELEMENT = "Load.S70A"
70           1           12.047 /_  -31.0 =     10.332 +j    -6.196
70           0           12.047 /_  149.0 =    -10.332 +j     6.196

ELEMENT = "Load.S71A"
71           1           24.117 /_  -31.0 =     20.679 +j    -12.41
71           0           24.117 /_  149.0 =    -20.679 +j     12.41

ELEMENT = "Load.S73C"
73           3           19.806 /_   90.7 =   -0.24859 +j    19.805
73           0           19.806 /_  -89.3 =    0.24859 +j   -19.805

ELEMENT = "Load.S74C"
74           3           20.762 /_   90.7 =   -0.24671 +j    20.761
74           0           20.762 /_  -89.3 =    0.24671 +j   -20.761

ELEMENT = "Load.S75C"
75           3           19.867 /_   90.7 =   -0.22863 +j    19.866
75           0           19.867 /_  -89.3 =    0.22863 +j   -19.866

ELEMENT = "Load.S76A"
76           1            37.67 /_  -11.0 =     36.977 +j   -7.1937
76           2            37.67 /_  169.0 =    -36.977 +j    7.1937

ELEMENT = "Load.S76B"
76           2           22.321 /_ -128.4 =    -13.877 +j   -17.482
76           3           22.321 /_   51.6 =     13.877 +j    17.482

ELEMENT = "Load.S76C"
76           3           20.494 /_  111.0 =    -7.3531 +j    19.129
76           1           20.494 /_  -69.0 =     7.3531 +j   -19.129

ELEMENT = "Load.S77B"
77           2           21.334 /_ -149.5 =    -18.384 +j   -10.824
77           0           21.334 /_   30.5 =     18.384 +j    10.824

ELEMENT = "Load.S79A"
79           1           25.832 /_  -31.1 =     22.108 +j   -13.362
79           0           25.832 /_  148.9 =    -22.108 +j    13.362

ELEMENT = "Load.S80B"
80           2           21.291 /_ -149.6 =    -18.362 +j   -10.777
80           0           21.291 /_   30.4 =     18.362 +j    10.777

ELEMENT = "Load.S82A"
82           1           23.863 /_  -31.3 =     20.397 +j   -12.387
82           0           23.863 /_  148.7 =    -20.397 +j    12.387

ELEMENT = "Load.S83C"
83           3           9.8419 /_   90.4 =  -0.071369 +j    9.8416
83           0           9.8419 /_  -89.6 =   0.071369 +j   -9.8416

ELEMENT = "Load.S84C"
84           3           9.8837 /_   90.4 =  -0.074693 +j    9.8834
84           0           9.8837 /_  -89.6 =   0.074693 +j   -9.8834

ELEMENT = "Load.S85C"
85           3           19.793 /_   90.4 =   -0.14085 +j    19.792
85           0           19.793 /_  -89.6 =    0.14085 +j   -19.792

ELEMENT = "Load.S86B"
86           2             10.7 /_ -149.6 =    -9.2306 +j   -5.4122
86           0             10.7 /_   30.4 =     9.2306 +j    5.4122

ELEMENT = "Load.S87B"
87           2            21.42 /_ -149.7 =    -18.498 +j     -10.8
87           0            21.42 /_   30.3 =     18.498 +j      10.8

ELEMENT = "Load.S88A"
88           1           24.027 /_  -31.1 =     20.565 +j   -12.424
88           0           24.027 /_  148.9 =    -20.565 +j    12.424

ELEMENT = "Load.S90B"
90           2           22.108 /_ -149.8 =    -19.111 +j   -11.114
90           0           22.108 /_   30.2 =     19.111 +j    11.114

ELEMENT = "Load.S92C"
92           3           19.697 /_   90.6 =   -0.20711 +j    19.696
92           0           19.697 /_  -89.4 =    0.20711 +j   -19.696

ELEMENT = "Load.S94A"
94           1           24.073 /_  -31.1 =     20.607 +j   -12.445
94           0           24.073 /_  148.9 =    -20.607 +j    12.445

ELEMENT = "Load.S95B"
95           2           10.724 /_ -149.8 =    -9.2711 +j   -5.3893
95           0           10.724 /_   30.2 =     9.2711 +j    5.3893

ELEMENT = "Load.S96B"
96           2           10.727 /_ -149.8 =    -9.2744 +j     -5.39
96           0           10.727 /_   30.2 =     9.2744 +j      5.39

ELEMENT = "Load.S98A"
98           1           23.996 /_  -30.9 =     20.585 +j    -12.33
98           0           23.996 /_  149.1 =    -20.585 +j     12.33

ELEMENT = "Load.S99B"
99           2           21.354 /_ -149.3 =    -18.352 +j   -10.917
99           0           21.354 /_   30.7 =     18.352 +j    10.917

ELEMENT = "Load.S100C"
100          3           20.821 /_   90.8 =    -0.2895 +j    20.819
100          0           20.821 /_  -89.2 =     0.2895 +j   -20.819

ELEMENT = "Load.S102C"
102          3            9.906 /_   90.8 =    -0.1444 +j     9.905
102          0            9.906 /_  -89.2 =     0.1444 +j    -9.905

ELEMENT = "Load.S103C"
103          3           19.847 /_   90.8 =   -0.27728 +j    19.846
103          0           19.847 /_  -89.2 =    0.27728 +j   -19.846

ELEMENT = "Load.S104C"
104          3           19.886 /_   90.8 =   -0.26477 +j    19.884
104          0           19.886 /_  -89.2 =    0.26477 +j   -19.884

ELEMENT = "Load.S106B"
106          2           21.363 /_ -149.3 =    -18.375 +j   -10.897
106          0           21.363 /_   30.7 =     18.375 +j    10.897

ELEMENT = "Load.S107B"
107          2           21.399 /_ -149.4 =    -18.412 +j   -10.905
107          0           21.399 /_   30.6 =     18.412 +j    10.905

ELEMENT = "Load.S109A"
109          1           24.232 /_  -31.2 =     20.723 +j   -12.558
109          0           24.232 /_  148.8 =    -20.723 +j    12.558

ELEMENT = "Load.S111A"
111          1           12.159 /_  -31.3 =     10.391 +j    -6.314
111          0           12.159 /_  148.7 =    -10.391 +j     6.314

ELEMENT = "Load.S112A"
112          1           12.437 /_  -31.3 =     10.629 +j   -6.4581
112          0           12.437 /_  148.7 =    -10.629 +j    6.4581

ELEMENT = "Load.S113A"
113          1           25.377 /_  -31.3 =     21.675 +j   -13.197
113          0           25.377 /_  148.7 =    -21.675 +j    13.197

ELEMENT = "Load.S114A"
114          1           12.198 /_  -31.3 =     10.417 +j   -6.3454
...